Initial Commit
This is hello from Clive. I am adding a new line of code here.
Main changed to force conflict - Clive

Hamburger With no Pickles, Junaho Is Here
Hello one more time.I am Anson.

new line. -Lucas